@<TRIPOS>MOLECULE
LIG
   61    65     1     0     0
SMALL
bcc


@<TRIPOS>ATOM
      1 C1           2.3600    10.6210    15.5130 ca       293 LIG      -0.128000
      2 C2           6.0970    10.0740    16.3860 cp       293 LIG      -0.031000
      3 C3           6.4370     8.6900    16.2580 ca       293 LIG      -0.140000
      4 C7           4.9160    11.7070    14.8380 ca       293 LIG      -0.120000
      5 C8           3.7310    12.2490    14.2720 ca       293 LIG      -0.133000
      6 C9           6.9200     5.7870    16.8350 c3       293 LIG       0.004400
      7 C10          6.7200     5.2070    15.4380 c        293 LIG       0.887600
      8 C11          7.5930     8.1560    16.9270 ca       293 LIG       0.159100
      9 C12          8.4080     9.0190    17.7190 ca       293 LIG      -0.176000
     10 C13          8.0780    10.4000    17.8420 ca       293 LIG      -0.123000
     11 C14          6.9260    10.9280    17.1780 ca       293 LIG      -0.165000
     12 C15          3.3590     6.9490    14.4400 c3       293 LIG      -0.116100
     13 C16          2.5280     5.5810    18.2210 ca       293 LIG      -0.010000
     14 C19          3.0490     6.9750    17.9580 cc       293 LIG      -0.197300
     15 C20          2.8930     7.7040    16.8070 cd       293 LIG      -0.049600
     16 C21          2.2770     7.1780    15.5020 c3       293 LIG      -0.014100
     17 C22          2.9070     3.2440    18.9290 ca       293 LIG      -0.143500
     18 C24          4.1060     6.6740    22.5750 ca       293 LIG      -0.141500
     19 C27          4.3410     7.5550    20.2760 ca       293 LIG      -0.092500
     20 C30          1.1270     5.2900    18.0640 ca       293 LIG      -0.113000
     21 C            2.4560    11.7100    14.6080 ca       293 LIG      -0.138000
     22 C4           5.6860     7.9410    20.5700 ca       293 LIG      -0.106500
     23 C5           3.5450    10.0610    16.0900 ca       293 LIG       0.034800
     24 C6           4.8400    10.6120    15.7530 cp       293 LIG       0.014000
     25 O            7.2750     5.7190    14.4680 o        293 LIG      -0.835300
     26 O1           5.9360     4.1630    15.2630 o        293 LIG      -0.835300
     27 O2           7.9380     6.8180    16.8020 os       293 LIG      -0.328900
     28 C17          3.4130     4.5430    18.6550 ca       293 LIG      -0.113000
     29 N            3.4580     8.9580    16.9990 na       293 LIG       0.156300
     30 N1           3.9960     9.0000    18.3230 nd       293 LIG      -0.490800
     31 C18          3.7940     7.8620    18.9220 cc       293 LIG       0.357800
     32 C23          3.5500     6.9180    21.2880 ca       293 LIG      -0.106500
     33 C25          5.4470     7.0620    22.8580 ca       293 LIG      -0.139000
     34 C26          6.2380     7.6950    21.8610 ca       293 LIG      -0.141500
     35 C28          1.5210     2.9690    18.7680 ca       293 LIG      -0.142000
     36 C29          0.6320     3.9900    18.3350 ca       293 LIG      -0.143500
     37 H1           1.3920    10.2140    15.7670 ha       293 LIG       0.139000
     38 H3           5.8200     8.0410    15.6540 ha       293 LIG       0.191000
     39 H7           5.8770    12.1240    14.5760 ha       293 LIG       0.142000
     40 H8           3.7970    13.0770    13.5810 ha       293 LIG       0.125000
     41 H92          5.9820     6.2170    17.1850 h1       293 LIG       0.045200
     42 H93          7.2300     4.9940    17.5150 h1       293 LIG       0.045200
     43 H12          9.2760     8.6250    18.2260 ha       293 LIG       0.132000
     44 H13          8.7000    11.0510    18.4390 ha       293 LIG       0.112000
     45 H14          6.6820    11.9750    17.2750 ha       293 LIG       0.117000
     46 H212         1.7680     6.2350    15.7020 hc       293 LIG       0.046700
     47 H213         1.5550     7.9030    15.1280 hc       293 LIG       0.046700
     48 H22          3.5760     2.4640    19.2600 ha       293 LIG       0.125500
     49 H24          3.5110     6.1940    23.3380 ha       293 LIG       0.122000
     50 H30          0.4500     6.0660    17.7380 ha       293 LIG       0.166000
     51 H            1.5610    12.1310    14.1730 ha       293 LIG       0.125000
     52 H4           6.2860     8.4210    19.8110 ha       293 LIG       0.146500
     53 H17          4.4670     4.7480    18.7740 ha       293 LIG       0.166000
     54 H23          2.5330     6.6240    21.0740 ha       293 LIG       0.146500
     55 H25          5.8650     6.8740    23.8360 ha       293 LIG       0.117000
     56 H26          7.2540     7.9890    22.0810 ha       293 LIG       0.122000
     57 H28          1.1420     1.9790    18.9760 ha       293 LIG       0.114000
     58 H29         -0.4190     3.7750    18.2130 ha       293 LIG       0.125500
     59 H151         2.8980     6.5770    13.5250 hc       293 LIG       0.061033
     60 H152         3.8690     7.8900    14.2330 hc       293 LIG       0.061033
     61 H153         4.0800     6.2180    14.8070 hc       293 LIG       0.061033
@<TRIPOS>BOND
     1     1    21 ar  
     2     1    23 ar  
     3     1    37 1   
     4     2     3 ar  
     5     2    11 ar  
     6     2    24 1   
     7     3     8 ar  
     8     3    38 1   
     9     4     5 ar  
    10     4    24 ar  
    11     4    39 1   
    12     5    21 ar  
    13     5    40 1   
    14     6     7 1   
    15     6    27 1   
    16     6    41 1   
    17     6    42 1   
    18     7    25 1   
    19     7    26 1   
    20     8     9 ar  
    21     8    27 1   
    22     9    10 ar  
    23     9    43 1   
    24    10    11 ar  
    25    10    44 1   
    26    11    45 1   
    27    12    16 1   
    28    12    59 1   
    29    12    60 1   
    30    12    61 1   
    31    13    14 1   
    32    13    20 ar  
    33    13    28 ar  
    34    14    15 2   
    35    14    31 1   
    36    15    16 1   
    37    15    29 1   
    38    16    46 1   
    39    16    47 1   
    40    17    28 ar  
    41    17    35 ar  
    42    17    48 1   
    43    18    32 ar  
    44    18    33 ar  
    45    18    49 1   
    46    19    22 ar  
    47    19    31 1   
    48    19    32 ar  
    49    20    36 ar  
    50    20    50 1   
    51    21    51 1   
    52    22    34 ar  
    53    22    52 1   
    54    23    24 ar  
    55    23    29 1   
    56    28    53 1   
    57    29    30 1   
    58    30    31 2   
    59    32    54 1   
    60    33    34 ar  
    61    33    55 1   
    62    34    56 1   
    63    35    36 ar  
    64    35    57 1   
    65    36    58 1   
@<TRIPOS>SUBSTRUCTURE
     1 LIG         1 TEMP              0 ****  ****    0 ROOT
